*Heading
** Job name: Lamina_fine_06_10_25 Model name: Job-45DEG
** Generated by: Abaqus/CAE 2024
*Preprint, echo=NO, model=NO, history=NO, contact=NO
**
*Node
      1,         32.5,           0.,         0.25
      2,         32.5,          20.,         0.25
      3,           0.,          20.,         0.25
      4,           0.,           0.,         0.25
      5,         32.5,          20.,           0.
      6,         32.5,           0.,           0.
      7,           0.,           0.,           0.
      8,           0.,          20.,           0.
      9,         67.5,           0.,           0.
     10,         67.5,          20.,           0.
     11,         100.,          20.,           0.
     12,         100.,           0.,           0.
     13,         67.5,          20.,         0.25
     14,         67.5,           0.,         0.25
     15,         100.,           0.,         0.25
     16,         100.,          20.,         0.25
     17,         52.5,          10.,           0.
     18,         52.5,          10.,         0.25
     19,         32.5,  0.200000003,         0.25
     20,         32.5,  0.400000006,         0.25
** ... 51502 like lines cut
*Element, type=C3D8
   1, 1691, 3501,   20,   19, 3894, 5704,  288,  289
   2,  189, 1818, 1691,  190,  291, 4021, 3894,  290
   3, 2328, 2218, 2220, 2330, 4531, 4421, 4423, 4533
   4, 2905, 2722, 3569, 2816, 5108, 4925, 5772, 5019
   5, 3598, 3595, 2728, 2812, 5801, 5798, 4931, 5015
   6, 2821, 2915, 3076, 3000, 5024, 5118, 5279, 5203
   7, 3445, 2339, 2114, 2228, 5648, 4542, 4317, 4431
   8,  141, 1859, 3456,  142,  339, 4062, 5659,  338
   9,  143, 3438, 3441,  144,  337, 5641, 5644,  336
  10, 3438, 2339, 1600, 3441, 5641, 4542, 3803, 5644
  11, 3470, 3454, 3444, 3465, 5673, 5657, 5647, 5668
  12, 1594, 3481, 3480, 3491, 3797, 5684, 5683, 5694
  13, 3493, 3496, 3542, 1585, 5696, 5699, 5745, 3788
  14, 3496, 3493, 1576, 3490, 5699, 5696, 3779, 5693
  15, 1568, 3473, 3478, 1567, 3771, 5676, 5681, 3770
  16, 3469, 3455,  161,  160, 5672, 5658,  319,  320
  17, 1568, 1567, 3443, 3455, 3771, 3770, 5646, 5658
  18, 3442,  163,  162, 3443, 5645,  317,  318, 5646
  19, 3468, 3509, 3437, 3442, 5671, 5712, 5640, 5645
  20, 3468, 1567, 3478, 3521, 5671, 3770, 5681, 5724
** ... 25450 like lines cut
*Nset, nset=laminate, generate
     1,  51522,      1
*Elset, elset=laminate, generate
     1,  25470,      1
*User element, nodes=8, type=U1, properties=2, coordinates=3, var=55
11,12,13,14,15
*ELEMENT, TYPE=U1, ELSET=SOLID1
*include, input=VisualMesh_Lamina_fine_06_10_25.inp
*UEL PROPERTY, ELSET=SOLID1
0.6,45
*Orientation, name=Ori-1
          1.,           0.,           0.,           0.,           1.,           0.
3, 45.
*Orientation, name=Ori-2
          1.,           0.,           0.,           0.,           1.,           0.
3, 0.
** Section: Section-1
*Solid Section, elset=laminate, orientation=Ori-1, material=Material-1
,
**  
*Nset, nset=Back_bottom
 4, 7
*Nset, nset=Back_left
   7,   8
*Nset, nset=Loading_face
  11,  12,  15,  16, 494, 495, 496, 497, 498, 499, 500, 501, 502, 666, 667, 668
 669, 670, 671, 672, 673, 674
*Nset, nset=bc_back
   3,   4,   7,   8, 150, 151, 152, 153, 154, 155, 156, 157, 158, 322, 323, 324
 325, 326, 327, 328, 329, 330
*Amplitude, name=AMP-1, time=TOTAL TIME
             0.,              0.,           1.,              1.
** 
** MATERIALS
** 
*Material, name=MATERIAL-1
*Density
 2e-08,
*Depvar
     55,
*User Material, constants=18
171420.,  9080.,  5390.,   0.32,   0.45,270000.,    0.2, 2326
 1017,   62,  250,   100,     1., 0.2974,    1.3,  0.778
   81.5,  106.3
**User Material, constants=18
** 171420.,  9080.,  5390.,   0.32,   0.45,270000.,    0.2, 2326
** 1017,   62,  250,   100,     1., 0.4574,    2.19,  1.278
**   121.5,  166.3
** 
** BOUNDARY CONDITIONS
** 
** Name: BC-9 Type: Displacement/Rotation
*Boundary
Back_left, 3, 3
** Name: BC-10 Type: Displacement/Rotation
*Boundary
Back_bottom, 2, 2
Back_bottom, 3, 3
** Name: Disp-BC-1 Type: Displacement/Rotation
*Boundary
bc_back, 1, 1
** ----------------------------------------------------------------
*Step,name=Step-1, nlgeom=NO, inc=1000000
*Static, stabilize
1., 1., 1e-05, 1.
*Controls, reset
*Controls, parameters=time incrementation
 10000,10000,8000,12000,500, 5, , , , 
 , , , , , , , ,
*Controls, parameters=line search
1000, 1. ,0.0001 , ,0.01 
*Controls, parameters=field, field=displacement
0.05, 1., , , , , , 
*Controls, parameters=field, field=temperature
0.1, 1., , , , , , 
** 
** BOUNDARY CONDITIONS
** 
** Name: BC-6 Type: Displacement/Rotation
*Boundary
Loading_face, 1, 1, 0.45
** 
** OUTPUT REQUESTS
** 
*Restart, write, frequency=0
** 
** FIELD OUTPUT: F-Output-1
** 
*Output, field, number interval=10
*Node Output
RF, U, NT
*Element Output, directions=YES
E, S, SDV
** 
** HISTORY OUTPUT: H-Output-1
** 
*Output, history, variable=PRESELECT
*End Step
*Step, name=Step-2, nlgeom=NO, inc=1000000000
*Static, stabilize
0.05, 1., 1e-09, 0.05
*Controls, reset
*Controls, parameters=time incrementation
 10000,10000,8000,12000,500, 5, , , , 
 , , , , , , , ,
*Controls, parameters=line search
1000, 1. ,0.0001 , ,0.01 
*Controls, parameters=field, field=displacement
0.05, 1., , , , , , 
*Controls, parameters=field, field=temperature
0.1, 1., , , , , , 
** 
** BOUNDARY CONDITIONS
** 
** Name: BC-6 Type: Displacement/Rotation
*Boundary
Loading_face, 1, 1, 0.6362
** 
** OUTPUT REQUESTS
** 
*Restart, write, frequency=0
** 
** FIELD OUTPUT: F-Output-1
** 
*Output, field, number interval=50
*Node Output
RF, U, NT
*Element Output, directions=YES
E, S, SDV
** 
** HISTORY OUTPUT: H-Output-1
** 
*Output, history, variable=PRESELECT
*End Step
*Step, name=Step-3, nlgeom=NO, inc=1000000000
*Static, stabilize
0.02, 1., 1e-09, 0.02
*Controls, reset
*Controls, parameters=time incrementation
 10000,10000,8000,12000,500, 5, , , , 
 , , , , , , , ,
*Controls, parameters=line search
1000, 1. ,0.0001 , ,0.01 
*Controls, parameters=field, field=displacement
0.1, 1., , , , , , 
*Controls, parameters=field, field=temperature
0.2, 1., , , , , , 
** 
** BOUNDARY CONDITIONS
** 
** Name: BC-6 Type: Displacement/Rotation
*Boundary
Loading_face, 1, 1, 0.64
** 
** OUTPUT REQUESTS
** 
*Restart, write, frequency=0
** 
** FIELD OUTPUT: F-Output-1
** 
*Output, field, number interval=50
*Node Output
RF, U, NT
*Element Output, directions=YES
E, S, SDV
** 
** HISTORY OUTPUT: H-Output-1
** 
*Output, history, variable=PRESELECT
*End Step
