*Heading
** Job name: SENT_0DEG Model name: SENT_0DEG
** Generated by: Abaqus/CAE 6.14-4
*Preprint, echo=NO, model=NO, history=NO, contact=NO
**
*Node
      1,          0.5,   1.00999999, 0.0199999996
      2,          0.5,           2., 0.0199999996
      3,           0.,           2., 0.0199999996
      4,           0.,   1.00999999, 0.0199999996
      5,          0.5,           2.,  -4.47034826e-10
      6,          0.5,   1.00999999,  -4.47034826e-10
      7,           0.,   1.00999999,  -4.47034826e-10
      8,           0.,           2.,  -4.47034826e-10
      9,          0.5,   0.99000001,           0.
     10,          0.5,           0.,           0.
     11,           0.,           0.,           0.
     12,           0.,   0.99000001,           0.
     13,          0.5,           0., 0.0199999996
     14,          0.5,   0.99000001, 0.0199999996
     15,           0.,   0.99000001, 0.0199999996
     16,           0.,           0., 0.0199999996
     17,           1.,           2., 0.0199999996
     18,           1.,           0., 0.0199999996
     19,           1.,           0.,           0.
     20,           1.,           2.,  -4.47034826e-10
** ... 42028 like lines cut
*Element, type=C3D8
   1,   195,  1493,  1566,   196,  4924, 28855, 28928,  4923
   2,    24,    23,  1576,  1488,  4994,  4993, 28938, 28850
   3,  2214,  3044,  2353,  2278, 29576, 30406, 29715, 29640
   4,  3116,  2718,  2679,  2677, 30478, 30080, 30041, 30039
   5,  2828,  2821,  2856,  2837, 30190, 30183, 30218, 30199
   6,  2895,  1355,  2879,  2888, 30257, 28717, 30241, 30250
   7,  2924,  1363,  2964,  2966, 30286, 28725, 30326, 30328
   8,  2915,  1370,  1371,  2957, 30277, 28732, 28733, 30319
   9,   138,  2963,  2983,   139,  4981, 30325, 30345,  4980
  10,  2935,  2984,  2983,  2982, 30297, 30346, 30345, 30344
  11,   140,  2984,  1371,  2938,  4979, 30346, 28733, 30300
  12,  2957,  1371,  2984,  2935, 30319, 28733, 30346, 30297
  13,  1358,  2979,  1363,  2948, 28720, 30341, 28725, 30310
  14,  2805,  2829,  2858,  2851, 30167, 30191, 30220, 30213
  15,  1342,  2707,  2717,  2674, 28704, 30069, 30079, 30036
  16,  2340,  2318,  2244,  2259, 29702, 29680, 29606, 29621
  17,  1625,  1577,  1503,  1504, 28987, 28939, 28865, 28866
  18,  1501,   186,   185,  1502, 28863,  4933,  4934, 28864
  19,  1624,  1578,  1498,  1499, 28986, 28940, 28860, 28861
  20,  1491,  1482,    27,    26, 28853, 28844,  4997,  4996
** ... 27546 like lines cut
*User element, nodes=8, type=U1, properties=2, coordinates=3, var=55
11,12,13,14,15
*ELEMENT, TYPE=U1, ELSET=SOLID1
*include, input=VisualMesh_SENT_0DEG.inp
*UEL PROPERTY, ELSET=SOLID1
0.04,0
*Nset, nset=SENT, generate
     1,  42048,      1
*Elset, elset=SENT, generate
     1,  27566,      1
*Orientation, name=Ori-1
          1.,           0.,           0.,           0.,           1.,           0.
3, 0.
*Orientation, name=Ori-2
          1.,           0.,           0.,           0.,           1.,           0.
3, 45.
*Orientation, name=Ori-3
          1.,           0.,           0.,           0.,           1.,           0.
3, 90.
** Section: Section-1
*Solid Section, elset=SENT, orientation=Ori-1, material=Material-1
,
**  
*Nset, nset=Back_Bottom_node
 19,
*Nset, nset=Bottom_surface
   10,   11,   13,   16,   18,   19,  475,  476,  477,  478,  479,  480,  481,  482,  483,  484
  554,  555,  723,  724,  725,  726,  727,  728,  729,  730,  731,  732,  833,  834,  835,  836
  837,  838,  839,  840,  841,  842,  843,  844,  845,  846,  847,  848,  849,  850,  851,  852
  853,  854,  855,  856,  857,  858,  859,  860,  861,  862,  863,  864,  865,  866,  867,  868
  869,  870,  871,  872,  873,  874,  875,  876,  877,  878,  879,  880,  881,  882,  883,  884
  885,  886,  887,  888,  889,  890,  891,  892,  893,  894,  895,  896,  897,  898,  899,  900
  901,  902,  903,  904,  905,  906,  907,  908,  909,  910,  911,  912,  913,  914,  915,  916
  917,  918,  919,  920,  921,  922,  923,  924,  925,  926,  927,  928,  929,  930, 1130, 8736
 8737, 8738, 8739, 8740, 8741, 8742, 8743, 8744, 8745, 9142, 9143, 9144, 9145, 9146, 9147, 9148
 9149, 9150, 9151, 9152, 9153, 9154, 9155, 9156, 9157, 9158, 9159, 9160, 9161, 9162, 9163, 9164
 9165, 9166, 9167, 9168, 9169, 9170, 9171, 9172, 9173, 9174, 9175, 9176, 9177, 9178, 9179, 9180
 9181, 9182, 9183, 9184, 9185, 9186, 9187, 9188, 9189, 9190
*Elset, elset=Bottom_surface
  3857,  3858,  3865,  3869,  3870,  3876,  3880,  3881,  4038,  4617,  5184,  5755,  5756,  5763,  5767,  5768
  5774,  5778,  5779,  5936,  6515,  7082,  7665,  7764,  8065,  8164,  8465,  8564,  8865,  8964,  9265,  9364
  9665,  9764, 10065, 10164, 10465, 10564, 10865, 10964, 11265, 11364, 11665, 11764, 12065, 12164, 12465, 12564
 12865, 12964, 13265, 13364, 13665, 13764, 14065, 14164, 14465, 14564, 14865, 14964, 15265, 15364, 15665, 15764
 16065, 16164, 16465, 16564, 16865, 16964, 17265, 17364, 17665, 17764, 18065, 18164, 18465, 18564, 18865, 18964
 19265, 19364, 19665, 19764, 20065, 20164, 20465, 20564, 20865, 20964, 21265, 21364, 21665, 21764, 22065, 22164
 22465, 22564, 22865, 22964, 23265, 23364, 23665, 23764, 24065, 24164, 24465, 24564, 24865, 24964, 25265, 25364
 25665, 25764, 26065, 26164, 26465, 26564, 26865, 26964, 27265, 27364
*Nset, nset=Front_bottom_node
 16,
*Nset, nset=Top_surface
    2,    3,    5,    8,   17,   20,  119,  120,  121,  122,  123,  124,  125,  126,  127,  128
  199,  200,  367,  368,  369,  370,  371,  372,  373,  374,  375,  376,  735,  736,  737,  738
  739,  740,  741,  742,  743,  744,  745,  746,  747,  748,  749,  750,  751,  752,  753,  754
  755,  756,  757,  758,  759,  760,  761,  762,  763,  764,  765,  766,  767,  768,  769,  770
  771,  772,  773,  774,  775,  776,  777,  778,  779,  780,  781,  782,  783,  784,  785,  786
  787,  788,  789,  790,  791,  792,  793,  794,  795,  796,  797,  798,  799,  800,  801,  802
  803,  804,  805,  806,  807,  808,  809,  810,  811,  812,  813,  814,  815,  816,  817,  818
  819,  820,  821,  822,  823,  824,  825,  826,  827,  828,  829,  830,  831,  832, 1330, 5089
 5090, 5091, 5092, 5093, 5094, 5095, 5096, 5097, 5098, 9093, 9094, 9095, 9096, 9097, 9098, 9099
 9100, 9101, 9102, 9103, 9104, 9105, 9106, 9107, 9108, 9109, 9110, 9111, 9112, 9113, 9114, 9115
 9116, 9117, 9118, 9119, 9120, 9121, 9122, 9123, 9124, 9125, 9126, 9127, 9128, 9129, 9130, 9131
 9132, 9133, 9134, 9135, 9136, 9137, 9138, 9139, 9140, 9141
*Elset, elset=Top_surface
    86,    87,    95,   101,   102,   111,   287,   723,   853,   972,  1825,  1971,  1972,  1980,  1986,  1987
  1996,  2172,  2608,  2738,  2857,  3710,  7863,  7962,  8263,  8362,  8663,  8762,  9063,  9162,  9463,  9562
  9863,  9962, 10263, 10362, 10663, 10762, 11063, 11162, 11463, 11562, 11863, 11962, 12263, 12362, 12663, 12762
 13063, 13162, 13463, 13562, 13863, 13962, 14263, 14362, 14663, 14762, 15063, 15162, 15463, 15562, 15863, 15962
 16263, 16362, 16663, 16762, 17063, 17162, 17463, 17562, 17863, 17962, 18263, 18362, 18663, 18762, 19063, 19162
 19463, 19562, 19863, 19962, 20263, 20362, 20663, 20762, 21063, 21162, 21463, 21562, 21863, 21962, 22263, 22362
 22663, 22762, 23063, 23162, 23463, 23562, 23863, 23962, 24263, 24362, 24663, 24762, 25063, 25162, 25463, 25562
 25863, 25962, 26263, 26362, 26663, 26762, 27063, 27162, 27463, 27562
** 
** MATERIALS
** 
*Material, name=Material-1
*Density
 2e-08,
*Depvar
     55,
*User Material, constants=18
171420.,  9080.,  5390.,   0.32,   0.45,270000.,    0.2, 2326
 1017,   62,  250,   100,     1., 0.2974,    1.3,  0.778
   81.5,  106.3
** 
** BOUNDARY CONDITIONS
** 
** Name: BC-2 Type: Displacement/Rotation
*Boundary
Bottom_surface, 2, 2
** Name: BC-3 Type: Displacement/Rotation
*Boundary
Front_bottom_node, 1, 1
** Name: BC-4 Type: Displacement/Rotation
*Boundary
Back_Bottom_node, 3, 3
** ----------------------------------------------------------------
** 
** STEP: Step-1
** 
*Step,name=Step-1, nlgeom=NO, inc=1000000
*Static, stabilize
1., 1., 1e-05, 1.
*Controls, reset
*Controls, parameters=time incrementation
 10000,10000,8000,12000,500, 5, , , , 
 , , , , , , , ,
*Controls, parameters=line search
1000, 1. ,0.0001 , ,0.01 
*Controls, parameters=field, field=displacement
0.05, 1., , , , , , 
*Controls, parameters=field, field=temperature
0.1, 1., , , , , , 
** 
** BOUNDARY CONDITIONS
** 
** Name: BC-1 Type: Displacement/Rotation
*Boundary
Top_surface, 2, 2, 0.0075
** 
** OUTPUT REQUESTS
** 
*Restart, write, frequency=0
** 
** FIELD OUTPUT: F-Output-1
**
*Output, field, number interval=10
*Node Output
RF, U, NT
*Element Output, directions=YES
E, S, SDV
** 
** HISTORY OUTPUT: H-Output-1
** 
*Output, history, variable=PRESELECT
*End Step
** 
** STEP: Step-2
** 
*Step,name=Step-2, nlgeom=NO, inc=1000000
*Static, stabilize
0.05, 1., 1e-05, 0.05
*Controls, reset
*Controls, parameters=time incrementation
 10000,10000,8000,12000,500, 5, , , , 
 , , , , , , , ,
*Controls, parameters=line search
1000, 1. ,0.0001 , ,0.01 
*Controls, parameters=field, field=displacement
0.05, 1., , , , , , 
*Controls, parameters=field, field=temperature
0.1, 1., , , , , , 
** 
** BOUNDARY CONDITIONS
** 
** Name: BC-1 Type: Displacement/Rotation
*Boundary
Top_surface, 2, 2, 0.035
** 
** OUTPUT REQUESTS
** 
*Restart, write, frequency=0
** 
** FIELD OUTPUT: F-Output-1
**
*Output, field, number interval=20
*Node Output
RF, U, NT
*Element Output, directions=YES
E, S, SDV
** 
** HISTORY OUTPUT: H-Output-1
** 
*Output, history, variable=PRESELECT
*End Step
** 
** STEP: Step-3
** 
*Step,name=Step-3, nlgeom=NO, inc=1000000
*Static, stabilize
0.02, 1., 1e-05, 0.02
*Controls, reset
*Controls, parameters=time incrementation
 10000,10000,8000,12000,500, 5, , , , 
 , , , , , , , ,
*Controls, parameters=line search
1000, 1. ,0.0001 , ,0.01 
*Controls, parameters=field, field=displacement
0.1, 1., , , , , , 
*Controls, parameters=field, field=temperature
0.3, 1., , , , , , 
** 
** BOUNDARY CONDITIONS
** 
** Name: BC-1 Type: Displacement/Rotation
*Boundary
Top_surface, 2, 2, 0.041
** 
** OUTPUT REQUESTS
** 
*Restart, write, frequency=0
** 
** FIELD OUTPUT: F-Output-1
**
*Output, field, number interval=50
*Node Output
RF, U, NT
*Element Output, directions=YES
E, S, SDV
** 
** HISTORY OUTPUT: H-Output-1
** 
*Output, history, variable=PRESELECT
*End Step
